-------------------------------------------------------
          Amber 20 PMEMD                              2020
          -------------------------------------------------------

  [-O]verwriting output

File Assignments:

 Here is the input file:

TI simulation
 &cntrl

! simulation
imin = 0,                 ! flag to run minization (0=false)
nstlim = 1000000,         ! number of MD steps
irest = 1,                ! flag to restart simulation
ntx = 5,                  ! option to read from inpcrd file
ntxo = 1,                 ! read/write rst as formatted file
dt = 0.004,               ! timestep (4fs;hmr)
ntb = 2,              ! specify PBC type

! thermostate
ntt = 3,                  ! switch for time scaling (3=Langevin)
temp0 = 310,            ! reference temperature (if ntt>0)
gamma_ln = 5.0,           ! collision frequency for ntt=3
ig = -1,                  ! seed for Random Number Generator (RNG) (use -1 with
! barostate
ntp = 1,                  ! constant pressure dynamics (1=do scaling)
barostat = 2,             ! barostat to use (2=Monte Carlo)
mcbarint = 100,           ! volume change attempt every n steps
pres0 = 1.01325,          ! referenve pressure (in bars)
taup = 2.0,               ! pressure relation time (in ps)

! output
ioutfm = 1,               ! film fromat (1=binary NetCDF)
iwrap = 0,                ! wrap coordination into primary box (1=do)
ntwe = 10000,             ! write to .mden every n steps
ntwx = 10000,             ! write to .mdcrd every n steps
ntpr = 1000,              ! write energies to .mdout/.mdinfo every n steps
ntwr = 10000,             ! write rstrt file every n steps

! alchemical free energy
cut = 10.0
ntc = 2,                  ! SHAKE bond length constraints (2=H-atom)
ntf = 1,                  ! force evaluation (1=evalute all)
!noshakemask = ':L0,L1',     ! remove SHAKE from perturbed regions

icfe = 1,                 ! turn on free energy calculation
ifsc = 1,                 ! use softcore parameters (0=undo)
gti_add_sc = 2,           ! (3=1-4 vdW & vdW interactions will be scaled with l
clambda = 0.6839,           ! current lambda
ifmbar = 1,               ! generate additional output (1=do)
bar_intervall = 1,
mbar_states = 12,       ! number of lamda windows considered
mbar_lambda = 0.0000 0.0479 0.1151 0.2063 0.3161 0.4374 0.5626 0.6839 0.7937 0.
timask1 = ':L0',           ! specify atoms unique to V_0
timask2 = ':L1',           ! specify atoms unique to V_1
scmask1 = ':L0@S2, C10, C11, H6, N3, C12, H7, C13, H8, N4',
                      ! specify the unique atoms for V0
scmask2 = ':L1@O, C11, C10, H11, C12, H13, C13, H14, N3, H12',
                      ! specify the unique atoms for V1
vlimit = 20
 /
 &ewald
 /

Note: ig = -1. Setting random seed to   294873 based on wallclock time in
      microseconds.

--------------------------------------------------------------------------------
   1.  RESOURCE   USE:
--------------------------------------------------------------------------------

 getting new box info from bottom of inpcrd
 NATOM  =    9985 NTYPES =      13 NBONH =    9944 MBONA  =      45
 NTHETH =      36 MTHETA =      61 NPHIH =      66 MPHIA  =      91
 NHPARM =       0 NPARM  =       0 NNB   =   13505 NRES   =    3311
 NBONA  =      45 NTHETA =      61 NPHIA =      91 NUMBND =      22
 NUMANG =      36 NPTRA  =      11 NATYP =      16 NPHB   =       0
 IFBOX  =       1 NMXRS  =      29 IFCAP =       0 NEXTRA =       0
 NCOPY  =       0

     BOX TYPE: RECTILINEAR

--------------------------------------------------------------------------------
   2.  CONTROL  DATA  FOR  THE  RUN
--------------------------------------------------------------------------------

default_name

General flags:
     imin    =       0, nmropt  =       0

Nature and format of input:
     ntx     =       5, irest   =       1, ntrx    =       1

Nature and format of output:
     ntxo    =       1, ntpr    =    1000, ntrx    =       1, ntwr    =   10000
     iwrap   =       0, ntwx    =   10000, ntwv    =       0, ntwe    =   10000
     ioutfm  =       1, ntwprt  =       0, idecomp =       0, rbornstat=      0

Potential function:
     ntf     =       1, ntb     =       2, igb     =       0, nsnb    =      25
     ipol    =       0, gbsa    =       0, iesp    =       0
     dielc   =   1.00000, cut     =  10.00000, intdiel =   1.00000

Frozen or restrained atoms:
     ibelly  =       0, ntr     =       0

Molecular dynamics:
     nstlim  =   1000000, nscm    =      1000, nrespa  =         1
     t       =   0.00000, dt      =   0.00400, vlimit  =  20.00000

Langevin dynamics temperature regulation:
     ig      =  294873
     temp0   = 310.00000, tempi   =   0.00000, gamma_ln=   5.00000

Pressure regulation:
     ntp     =       1
     pres0   =   1.01325, comp    =  44.60000, taup    =   2.00000
     Monte-Carlo Barostat:
     mcbarint  =     100

SHAKE:
     ntc     =       2, jfastw  =       0
     tol     =   0.00001

Free energy options:
     icfe    =       1, ifsc    =       1, klambda =       1
     clambda =  0.6839, scalpha =  0.5000, scbeta  = 12.0000
     sceeorder =       2
     dynlmb =  0.0000 logdvdl =       0

FEP MBAR options:
     ifmbar  =       1,  bar_intervall =        1
     mbar_states =      12

Ewald parameters:
     verbose =       0, ew_type =       0, nbflag  =       1, use_pme =       1
     vdwmeth =       1, eedmeth =       1, netfrc  =       1
     Box X =   46.956   Box Y =   47.120   Box Z =   46.372
     Alpha =   90.000   Beta  =   90.000   Gamma =   90.000
     NFFT1 =   48       NFFT2 =   48       NFFT3 =   48
     Cutoff=   10.000   Tol   =0.100E-04
     Ewald Coefficient =  0.27511
     Interpolation order =    4
     TI Mask 1 :L0; matches     29 atoms
     TI Mask 2 :L1; matches     29 atoms
     TI region 1:    9956 atoms
     TI region 2:    9956 atoms
     SC Mask 1 :L0@S2, C10, C11, H6, N3, C12, H7, C13, H8, N4; matches     10 atoms
     SC Mask 2 :L1@O, C11, C10, H11, C12, H13, C13, H14, N3, H12; matches     10 atoms

    MBAR - lambda values considered:
      12 total:  0.0000 0.0479 0.1151 0.2063 0.3161 0.4374 0.5626 0.6839 0.7937 0.8850 0.9521 1.0000
    Extra energies will be computed ****** times.

--------------------------------------------------------------------------------
   3.  ATOMIC COORDINATES AND VELOCITIES
--------------------------------------------------------------------------------

default_name
 begin time read from input coords =  1005.000 ps

     Molecule     1 is partially softcore
     Molecule     2 is partially softcore
 Number of triangulated 3-point waters found:     3309
 Number of shake restraints removed in TI region  1 :        0
 Number of shake restraints removed in TI region  2 :        0

     Sum of charges for TI region  1 =   0.00200000
     Skip neutralizing charges...

     Sum of charges for TI region  2 =   0.00100000
     Skip neutralizing charges...

--------------------------------------------------------------------------------
   4.  RESULTS
 NSTEP =     1000   TIME(PS) =    1009.000  TEMP(K) =   306.02  PRESS =     0.0
 Etot   =    -24902.3606  EKtot   =      6060.7774  EPtot      =    -30963.1379
 BOND   =         4.0196  ANGLE   =         7.8537  DIHED      =         3.8485
 1-4 NB =         2.9538  1-4 EEL =        33.5689  VDWAALS    =      4365.7406
 EELEC  =    -35381.1231  EHBOND  =         0.0000  RESTRAINT  =         0.0000
 EKCMT  =         0.0000  VIRIAL  =         0.0000  VOLUME     =    102813.4410
                                                    Density    =         0.9686
 DV/DL  =       -56.3512
 ------------------------------------------------------------------------------

      A V E R A G E S   O V E R    1000 S T E P S

 NSTEP =  1000000   TIME(PS) =    5005.000  TEMP(K) =   310.10  PRESS =     0.0
 Etot   =    -24768.6582  EKtot   =      6141.6803  EPtot      =    -30910.3385
 BOND   =         5.7721  ANGLE   =         6.3771  DIHED      =         4.0809
 1-4 NB =         4.2465  1-4 EEL =        32.2565  VDWAALS    =      4500.9845
 EELEC  =    -35464.0559  EHBOND  =         0.0000  RESTRAINT  =         0.0000
 EKCMT  =         0.0000  VIRIAL  =         0.0000  VOLUME     =    102214.2256
                                                    Density    =         0.9743
 DV/DL  =       -62.0329
 ------------------------------------------------------------------------------

      R M S  F L U C T U A T I O N S

 NSTEP =  1000000   TIME(PS) =    5005.000  TEMP(K) =     3.17  PRESS =     0.0
 Etot   =       113.6567  EKtot   =        62.7091  EPtot      =        93.6501
 BOND   =         2.2389  ANGLE   =         2.0969  DIHED      =         1.6285
 1-4 NB =         0.7030  1-4 EEL =         1.1376  VDWAALS    =        92.4026
 EELEC  =       148.5318  EHBOND  =         0.0000  RESTRAINT  =         0.0000
 EKCMT  =         0.0000  VIRIAL  =         0.0000  VOLUME     =       504.8342
                                                    Density    =         0.0048
 DV/DL  =         5.4989
 ------------------------------------------------------------------------------

      A V E R A G E S   O V E R    1000 S T E P S

 NSTEP =  1000000   TIME(PS) =    5005.000  TEMP(K) =   310.10  PRESS =     0.0
 Etot   =    -24769.0051  EKtot   =      6141.3334  EPtot      =    -30910.3385
 BOND   =         5.7721  ANGLE   =         6.3771  DIHED      =         4.0809
 1-4 NB =         4.2465  1-4 EEL =        32.2565  VDWAALS    =      4500.9845
 EELEC  =    -35464.0559  EHBOND  =         0.0000  RESTRAINT  =         0.0000
 EKCMT  =         0.0000  VIRIAL  =         0.0000  VOLUME     =    102214.2256
                                                    Density    =         0.9738
 DV/DL  =       -62.0329
 ------------------------------------------------------------------------------

      R M S  F L U C T U A T I O N S

 NSTEP =  1000000   TIME(PS) =    5005.000  TEMP(K) =     3.17  PRESS =     0.0
 Etot   =       113.6731  EKtot   =        62.6914  EPtot      =        93.6501
 BOND   =         2.2389  ANGLE   =         2.0969  DIHED      =         1.6285
 1-4 NB =         0.7030  1-4 EEL =         1.1376  VDWAALS    =        92.4026
 EELEC  =       148.5318  EHBOND  =         0.0000  RESTRAINT  =         0.0000
 EKCMT  =         0.0000  VIRIAL  =         0.0000  VOLUME     =       504.8342
                                                    Density    =         0.0048
 DV/DL  =         5.4989
 ------------------------------------------------------------------------------

      DV/DL, AVERAGES OVER    1000 STEPS

 NSTEP =  1000000   TIME(PS) =    5005.000  TEMP(K) =     3.17  PRESS =     0.0
 Etot   =         0.0000  EKtot   =         0.0000  EPtot      =         0.0000
 BOND   =         0.0000  ANGLE   =         0.0000  DIHED      =        -0.0002
 1-4 NB =        -1.4694  1-4 EEL =       -40.2904  VDWAALS    =         0.8369
 EELEC  =       -19.0524  EHBOND  =         0.0000  RESTRAINT  =         0.0000
 EKCMT  =         0.0000  VIRIAL  =         0.0000  VOLUME     =         0.0000
                                                    Density    =         0.0000
 ------------------------------------------------------------------------------
