-------------------------------------------------------
          Amber 20 PMEMD                              2020
          -------------------------------------------------------

  [-O]verwriting output

File Assignments:

 Here is the input file:

TI simulation
 &cntrl

! simulation
imin = 0,                 ! flag to run minization (0=false)
nstlim = 250000,         ! number of MD steps
irest = 1,                ! flag to restart simulation
ntx = 5,                  ! option to read from inpcrd file
ntxo = 1,                 ! read/write rst as formatted file
dt = 0.004,               ! timestep (4fs;hmr)
ntb = 2,              ! specify PBC type

! thermostate
ntt = 3,                  ! switch for time scaling (3=Langevin)
temp0 = 310,            ! reference temperature (if ntt>0)
gamma_ln = 5.0,           ! collision frequency for ntt=3
ig = -1,                  ! seed for Random Number Generator (RNG) (use -1 with
! barostate
ntp = 1,                  ! constant pressure dynamics (1=do scaling)
barostat = 2,             ! barostat to use (2=Monte Carlo)
mcbarint = 100,           ! volume change attempt every n steps
pres0 = 1.01325,          ! referenve pressure (in bars)
taup = 2.0,               ! pressure relation time (in ps)

! output
ioutfm = 1,               ! film fromat (1=binary NetCDF)
iwrap = 0,                ! wrap coordination into primary box (1=do)
ntwe = 10000,             ! write to .mden every n steps
ntwx = 10000,             ! write to .mdcrd every n steps
ntpr = 1000,              ! write energies to .mdout/.mdinfo every n steps
ntwr = 10000,             ! write rstrt file every n steps

! alchemical free energy
cut = 10.0
ntc = 2,                  ! SHAKE bond length constraints (2=H-atom)
ntf = 1,                  ! force evaluation (1=evalute all)
!noshakemask = ':1,2',     ! remove SHAKE from perturbed regions

icfe = 1,                 ! turn on free energy calculation
ifsc = 1,                 ! use softcore parameters (0=undo)
gti_add_sc = 2,           ! (3=1-4 vdW & vdW interactions will be scaled with l
clambda = 0.2063,           ! current lambda
ifmbar = 1,               ! generate additional output (1=do)
bar_intervall = 1,
mbar_states = 12,       ! number of lamda windows considered
mbar_lambda = 0.0000 0.0479 0.1151 0.2063 0.3161 0.4374 0.5626 0.6839 0.7937 0.
timask1 = ':L0',           ! specify atoms unique to V_0
timask2 = ':L1',           ! specify atoms unique to V_1
scmask1 = ':L0@S2, C10, C11, H6, N3, C12, H7, C13, H8, N4',
                      ! specify the unique atoms for V0
scmask2 = ':L1@O, C11, C10, H11, C12, H13, C13, H14, N3, H12',
                      ! specify the unique atoms for V1
vlimit = 5
 /
 &ewald
 /

Note: ig = -1. Setting random seed to   367968 based on wallclock time in
      microseconds.

--------------------------------------------------------------------------------
   1.  RESOURCE   USE:
--------------------------------------------------------------------------------

 getting new box info from bottom of inpcrd
 NATOM  =  265740 NTYPES =      67 NBONH =  234598 MBONA  =   30500
 NTHETH =  107927 MTHETA =   36487 NPHIH =  179120 MPHIA  =  114999
 NHPARM =       0 NPARM  =       0 NNB   =  676844 NRES   =   65576
 NBONA  =   30500 NTHETA =   36487 NPHIA =  114999 NUMBND =     118
 NUMANG =     242 NPTRA  =     453 NATYP =      10 NPHB   =       0
 IFBOX  =       1 NMXRS  =      50 IFCAP =       0 NEXTRA =       0
 NCOPY  =       0

     BOX TYPE: RECTILINEAR

--------------------------------------------------------------------------------
   2.  CONTROL  DATA  FOR  THE  RUN
--------------------------------------------------------------------------------

default_name

General flags:
     imin    =       0, nmropt  =       0

Nature and format of input:
     ntx     =       5, irest   =       1, ntrx    =       1

Nature and format of output:
     ntxo    =       1, ntpr    =    1000, ntrx    =       1, ntwr    =   10000
     iwrap   =       0, ntwx    =   10000, ntwv    =       0, ntwe    =   10000
     ioutfm  =       1, ntwprt  =       0, idecomp =       0, rbornstat=      0

Potential function:
     ntf     =       1, ntb     =       2, igb     =       0, nsnb    =      25
     ipol    =       0, gbsa    =       0, iesp    =       0
     dielc   =   1.00000, cut     =  10.00000, intdiel =   1.00000

Frozen or restrained atoms:
     ibelly  =       0, ntr     =       0

Molecular dynamics:
     nstlim  =    250000, nscm    =      1000, nrespa  =         1
     t       =   0.00000, dt      =   0.00400, vlimit  =   5.00000

Langevin dynamics temperature regulation:
     ig      =  367968
     temp0   = 310.00000, tempi   =   0.00000, gamma_ln=   5.00000

Pressure regulation:
     ntp     =       1
     pres0   =   1.01325, comp    =  44.60000, taup    =   2.00000
     Monte-Carlo Barostat:
     mcbarint  =     100

SHAKE:
     ntc     =       2, jfastw  =       0
     tol     =   0.00001

Free energy options:
     icfe    =       1, ifsc    =       1, klambda =       1
     clambda =  0.2063, scalpha =  0.5000, scbeta  = 12.0000
     sceeorder =       2
     dynlmb =  0.0000 logdvdl =       0

FEP MBAR options:
     ifmbar  =       1,  bar_intervall =        1
     mbar_states =      12

Ewald parameters:
     verbose =       0, ew_type =       0, nbflag  =       1, use_pme =       1
     vdwmeth =       1, eedmeth =       1, netfrc  =       1
     Box X =  143.161   Box Y =  143.161   Box Z =  128.801
     Alpha =   90.000   Beta  =   90.000   Gamma =   90.000
     NFFT1 =  144       NFFT2 =  144       NFFT3 =  128
     Cutoff=   10.000   Tol   =0.100E-04
     Ewald Coefficient =  0.27511
     Interpolation order =    4
     TI Mask 1 :L0; matches     29 atoms
     TI Mask 2 :L1; matches     29 atoms
     TI region 1:  265711 atoms
     TI region 2:  265711 atoms
     SC Mask 1 :L0@S2, C10, C11, H6, N3, C12, H7, C13, H8, N4; matches     10 atoms
     SC Mask 2 :L1@O, C11, C10, H11, C12, H13, C13, H14, N3, H12; matches     10 atoms

    MBAR - lambda values considered:
      12 total:  0.0000 0.0479 0.1151 0.2063 0.3161 0.4374 0.5626 0.6839 0.7937 0.8850 0.9521 1.0000
    Extra energies will be computed 250000 times.

--------------------------------------------------------------------------------
   3.  ATOMIC COORDINATES AND VELOCITIES
--------------------------------------------------------------------------------

default_name
 begin time read from input coords =    50.000 ps

     Molecule     1 is partially softcore
     Molecule     2 is partially softcore
 Number of triangulated 3-point waters found:    63104
 Number of shake restraints removed in TI region  1 :        0
 Number of shake restraints removed in TI region  2 :        0

     Sum of charges for TI region  1 =   0.00103705
     Skip neutralizing charges...

     Sum of charges for TI region  2 =   0.00003705
     Skip neutralizing charges...

--------------------------------------------------------------------------------
   4.  RESULTS
 NSTEP =     1000   TIME(PS) =      54.000  TEMP(K) =   309.45  PRESS =     0.0
 Etot   =   -555750.1308  EKtot   =    172964.6273  EPtot      =   -728714.7581
 BOND   =     13180.1658  ANGLE   =     43317.0315  DIHED      =     24626.0738
 1-4 NB =      9695.7456  1-4 EEL =   -131013.6396  VDWAALS    =     56708.2309
 EELEC  =   -745228.3660  EHBOND  =         0.0000  RESTRAINT  =         0.0000
 EKCMT  =         0.0000  VIRIAL  =         0.0000  VOLUME     =   2642034.8686
                                                    Density    =         1.0034
 DV/DL  =       -41.9098
 ------------------------------------------------------------------------------

      A V E R A G E S   O V E R     250 S T E P S

 NSTEP =   250000   TIME(PS) =    1050.000  TEMP(K) =   310.28  PRESS =     0.0
 Etot   =   -558737.5033  EKtot   =    173430.5722  EPtot      =   -732168.0756
 BOND   =     13051.8461  ANGLE   =     42976.2780  DIHED      =     23638.9142
 1-4 NB =      9643.0352  1-4 EEL =   -130211.4596  VDWAALS    =     56092.8658
 EELEC  =   -747359.5554  EHBOND  =         0.0000  RESTRAINT  =         0.0000
 EKCMT  =         0.0000  VIRIAL  =         0.0000  VOLUME     =   2640481.0922
                                                    Density    =         1.0040
 DV/DL  =       -57.4240
 ------------------------------------------------------------------------------

      R M S  F L U C T U A T I O N S

 NSTEP =   250000   TIME(PS) =    1050.000  TEMP(K) =     0.58  PRESS =     0.0
 Etot   =       976.3418  EKtot   =       326.1639  EPtot      =       937.2802
 BOND   =        99.7240  ANGLE   =       184.7350  DIHED      =       263.6410
 1-4 NB =        40.4266  1-4 EEL =       197.2018  VDWAALS    =       405.2929
 EELEC  =       852.1443  EHBOND  =         0.0000  RESTRAINT  =         0.0000
 EKCMT  =         0.0000  VIRIAL  =         0.0000  VOLUME     =      2901.9727
                                                    Density    =         0.0011
 DV/DL  =         7.6051
 ------------------------------------------------------------------------------

      A V E R A G E S   O V E R     250 S T E P S

 NSTEP =   250000   TIME(PS) =    1050.000  TEMP(K) =   310.28  PRESS =     0.0
 Etot   =   -558737.7479  EKtot   =    173430.3277  EPtot      =   -732168.0756
 BOND   =     13051.8461  ANGLE   =     42976.2780  DIHED      =     23638.9142
 1-4 NB =      9643.0352  1-4 EEL =   -130211.4596  VDWAALS    =     56092.8658
 EELEC  =   -747359.5554  EHBOND  =         0.0000  RESTRAINT  =         0.0000
 EKCMT  =         0.0000  VIRIAL  =         0.0000  VOLUME     =   2640481.0922
                                                    Density    =         1.0039
 DV/DL  =       -57.4240
 ------------------------------------------------------------------------------

      R M S  F L U C T U A T I O N S

 NSTEP =   250000   TIME(PS) =    1050.000  TEMP(K) =     0.58  PRESS =     0.0
 Etot   =       976.4770  EKtot   =       326.0208  EPtot      =       937.2802
 BOND   =        99.7240  ANGLE   =       184.7350  DIHED      =       263.6410
 1-4 NB =        40.4266  1-4 EEL =       197.2018  VDWAALS    =       405.2929
 EELEC  =       852.1443  EHBOND  =         0.0000  RESTRAINT  =         0.0000
 EKCMT  =         0.0000  VIRIAL  =         0.0000  VOLUME     =      2901.9727
                                                    Density    =         0.0011
 DV/DL  =         7.6051
 ------------------------------------------------------------------------------

      DV/DL, AVERAGES OVER     250 STEPS

 NSTEP =   250000   TIME(PS) =    1050.000  TEMP(K) =     0.58  PRESS =     0.0
 Etot   =         0.0000  EKtot   =         0.0000  EPtot      =         0.0000
 BOND   =         0.0000  ANGLE   =         0.0000  DIHED      =         0.0000
 1-4 NB =        -0.2308  1-4 EEL =       -39.0255  VDWAALS    =         1.9033
 EELEC  =       -14.4238  EHBOND  =         0.0000  RESTRAINT  =         0.0000
 EKCMT  =         0.0000  VIRIAL  =         0.0000  VOLUME     =         0.0000
                                                    Density    =         0.0000
 ------------------------------------------------------------------------------
