Info: SIMULATION PARAMETERS:
Info: TIMESTEP               2
Info: NUMBER OF STEPS        500000
Info: STEPS PER CYCLE        20
Info: PERIODIC CELL BASIS 1  132.364 0 0
Info: PERIODIC CELL BASIS 2  0 132.364 0
Info: PERIODIC CELL BASIS 3  0 0 147.528
Info: PERIODIC CELL CENTER   0 0 0
Info: WRAPPING WATERS AROUND PERIODIC BOUNDARIES ON OUTPUT.
Info: FIRST LDB TIMESTEP     100
Info: LAST LDB TIMESTEP     -1
Info: HOM BACKGROUND SCALING 1
Info: PME BACKGROUND SCALING 1
Info: REMOVING PATCHES FROM PROCESSOR 0
Info: MIN ATOMS PER PATCH    40
Info: VELOCITY FILE          equil1.restart.vel
Info: CENTER OF MASS MOVING INITIALLY? NO
Info: DIELECTRIC             1
Info: EXCLUDE                SCALED ONE-FOUR
Info: 1-4 ELECTROSTATICS SCALED BY 1
Info: MODIFIED 1-4 VDW PARAMETERS WILL BE USED
Info: DCD FILENAME           brute.dcd
Info: DCD FREQUENCY          2000
Info: DCD FIRST STEP         2000
Info: DCD FILE WILL CONTAIN UNIT CELL DATA
Info: XST FILENAME           brute.xst
Info: XST FREQUENCY          2000
Info: NO VELOCITY DCD OUTPUT
Info: NO FORCE DCD OUTPUT
Info: OUTPUT FILENAME        brute
Info: BINARY OUTPUT FILES WILL BE USED
Info: RESTART FILENAME       brute.restart
Info: RESTART FREQUENCY      2000
Info: BINARY RESTART FILES WILL BE USED
Info: SWITCHING ACTIVE
Info: VDW FORCE SWITCHING ACTIVE
Info: SWITCHING ON           10
Info: SWITCHING OFF          12
Info: PAIRLIST DISTANCE      16
Info: PAIRLIST SHRINK RATE   0.01
Info: PAIRLIST GROW RATE     0.01
Info: PAIRLIST TRIGGER       0.3
Info: PAIRLISTS PER CYCLE    2
Info: PAIRLISTS ENABLED
Info: MARGIN                 1.11
Info: HYDROGEN GROUP CUTOFF  2.5
Info: PATCH DIMENSION        19.61
Info: ENERGY OUTPUT STEPS    100
Info: CROSSTERM ENERGY INCLUDED IN DIHEDRAL
Info: TIMING OUTPUT STEPS    2000
Info: COLLECTIVE VARIABLES CALCULATION REQUESTED
Info: COLLECTIVE VARIABLES CONFIGURATION   inputfiles/distance_restraint.namd.col
Info: LANGEVIN DYNAMICS ACTIVE
Info: LANGEVIN TEMPERATURE   298.15
Info: LANGEVIN USING BBK INTEGRATOR
Info: LANGEVIN DAMPING COEFFICIENT IS 1 INVERSE PS
Info: LANGEVIN DYNAMICS NOT APPLIED TO HYDROGENS
Info: VELOCITY REASSIGNMENT FREQ  500
Info: VELOCITY REASSIGNMENT TEMP  298.15
Info: LANGEVIN PISTON PRESSURE CONTROL ACTIVE
Info:        TARGET PRESSURE IS 1.01325 BAR
Info:     OSCILLATION PERIOD IS 50 FS
Info:             DECAY TIME IS 25 FS
Info:     PISTON TEMPERATURE IS 298.15 K
Info:       PRESSURE CONTROL IS GROUP-BASED
Info:    INITIAL STRAIN RATE IS 0 0 0
Info:       CELL FLUCTUATION IS ANISOTROPIC
Info:     SHAPE OF CELL IS CONSTRAINED IN X-Y PLANE
Info: PARTICLE MESH EWALD (PME) ACTIVE
Info: PME TOLERANCE               1e-06
Info: PME EWALD COEFFICIENT       0.257952
Info: PME INTERPOLATION ORDER     6
Info: PME GRID DIMENSIONS         144 144 160
Info: PME MAXIMUM GRID SPACING    1
Info: FULL ELECTROSTATIC EVALUATION FREQUENCY      1
Info: USING VERLET I (r-RESPA) MTS SCHEME.
Info: C1 SPLITTING OF LONG RANGE ELECTROSTATICS
Info: PLACING ATOMS IN PATCHES BY HYDROGEN GROUPS
Info: RIGID BONDS TO HYDROGEN : ALL
Info:         ERROR TOLERANCE : 1e-08
Info:          MAX ITERATIONS : 100
Info: RIGID WATER USING SETTLE ALGORITHM
Info: RANDOM NUMBER SEED     1626222019
Info: USE HYDROGEN BONDS?    NO
Info: COORDINATE PDB         inputfiles/step5_charmm2namd.pdb
Info: STRUCTURE FILE         inputfiles/step5_charmm2namd.psf
Info: PARAMETER file: CHARMM format!
Info: PARAMETERS             ./toppar/par_all36_carb.prm
Info: PARAMETERS             ./toppar/toppar_all36_label_fluorophore.str
Info: PARAMETERS             ./toppar/toppar_all36_carb_imlab.str
Info: PARAMETERS             ./toppar/toppar_all36_carb_glycopeptide.str
Info: PARAMETERS             ./toppar/toppar_all36_carb_glycolipid.str
Info: PARAMETERS             ./toppar/par_all36_prot.prm
Info: PARAMETERS             ./toppar/par_all36_na.prm
Info: PARAMETERS             ./toppar/par_all36_lipid.prm
Info: PARAMETERS             ./toppar/par_all36_cgenff.prm
Info: PARAMETERS             ./toppar/toppar_all36_lipid_model.str
Info: PARAMETERS             ./toppar/toppar_all36_lipid_miscellaneous.str
Info: PARAMETERS             ./toppar/toppar_all36_lipid_lps.str
Info: PARAMETERS             ./toppar/toppar_all36_lipid_inositol.str
Info: PARAMETERS             ./toppar/toppar_all36_lipid_hmmm.str
Info: PARAMETERS             ./toppar/toppar_all36_lipid_ether.str
Info: PARAMETERS             ./toppar/toppar_all36_lipid_detergent.str
Info: PARAMETERS             ./toppar/toppar_all36_lipid_cholesterol.str
Info: PARAMETERS             ./toppar/toppar_all36_lipid_cardiolipin.str
Info: PARAMETERS             ./toppar/toppar_all36_lipid_bacterial.str
Info: PARAMETERS             ./toppar/toppar_all36_label_spin.str
Info: PARAMETERS             ./toppar/toppar_all36_prot_retinol.str
Info: PARAMETERS             ./toppar/toppar_all36_prot_na_combined.str
Info: PARAMETERS             ./toppar/toppar_all36_prot_heme.str
Info: PARAMETERS             ./toppar/toppar_all36_prot_fluoro_alkanes.str
Info: PARAMETERS             ./toppar/toppar_all36_prot_d_aminoacids.str
Info: PARAMETERS             ./toppar/toppar_all36_na_rna_modified.str
Info: PARAMETERS             ./toppar/toppar_all36_na_nad_ppi.str
Info: PARAMETERS             ./toppar/toppar_all36_lipid_yeast.str
Info: PARAMETERS             ./toppar/toppar_all36_lipid_sphingo.str
Info: PARAMETERS             ./toppar/toppar_all36_lipid_pyrophosphate.str
Info: PARAMETERS             ./toppar/toppar_all36_lipid_prot.str
Info: PARAMETERS             ./toppar/toppar_water_ions.str
Info: PARAMETERS             ./toppar/toppar_dum_noble_gases.str
Info: PARAMETERS             lig-bella/lig.prm
Info: USING ARITHMETIC MEAN TO COMBINE L-J SIGMA PARAMETERS
Info: BINARY COORDINATES     equil1.restart.coor
Info: MIXED PRECISION AVX-512 TILES OPTIMIZATIONS: ENABLED
Info: SUMMARY OF PARAMETERS:
Info: 1641 BONDS
Info: 5127 ANGLES
Info: 13602 DIHEDRAL
Info: 339 IMPROPER
Info: 14 CROSSTERM
Info: 557 VDW
Info: 46 VDW_PAIRS
Info: 0 NBTHOLE_PAIRS
Info: STRUCTURE SUMMARY:
Info: 265976 ATOMS
Info: 202195 BONDS
Info: 207815 ANGLES
Info: 202885 DIHEDRALS
Info: 2892 IMPROPERS
Info: 713 CROSSTERMS
Info: 0 EXCLUSIONS
Info: 234604 RIGID BONDS
Info: 563324 DEGREES OF FREEDOM
Info: 94476 HYDROGEN GROUPS
Info: 4 ATOMS IN LARGEST HYDROGEN GROUP
Info: 94476 MIGRATION GROUPS
Info: 4 ATOMS IN LARGEST MIGRATION GROUP
Info: TOTAL MASS = 1.6015e+06 amu
Info: TOTAL CHARGE = 3.4289e-05 e
Info: MASS DENSITY = 1.0289 g/cm^3
Info: ATOM DENSITY = 0.102903 atoms/A^3
Info: ADDED 612270 IMPLICIT EXCLUSIONS
Info: NONBONDED TABLE R-SQUARED SPACING: 0.0625
Info: NONBONDED TABLE SIZE: 769 POINTS
Info: AVX-512 TILES WILL USE SHORT-RANGE INTERPOLATION (2)
Info: REMOVING COM VELOCITY 0 0 0
Info: Building spanning tree ... send: 1 recv: 0 with branch factor 4
Info: AVX-512 TILES WILL USE SHORT-RANGE INTERPOLATION (2)
TCL: Original numsteps 500000 will be ignored.
TCL: Running for 500000 steps
Info: build node-aware spanning tree with send: 1, recv: 0 with branch factor 4
Info: build node-aware spanning tree with send: 1, recv: 0 with branch factor 4
Info: build node-aware spanning tree with send: 1, recv: 0 with branch factor 4
Info: build node-aware spanning tree with send: 1, recv: 0 with branch factor 4
Info: build node-aware spanning tree with send: 1, recv: 0 with branch factor 4
Info: build node-aware spanning tree with send: 1, recv: 0 with branch factor 4
ETITLE: TS BOND ANGLE DIHED IMPRP ELECT VDW BOUNDARY MISC KINETIC TOTAL TEMP POTENTIAL TOTAL3 TEMPAVG PRESSURE GPRESSURE VOLUME PRESSAVG GPRESSAVG
ENERGY: 0 2019.0324 11774.8425 29655.7522 131.5097 -885871.4671 23785.0359 0.0000 0.0000 166720.4199 -651784.8745 297.8660 -818505.2945 -651723.1090 297.8660 -4762.5518 -4752.5724 2584724.2696 -4762.5518 -4752.5724
ENERGY: 2300 9381.0915 44911.0225 33593.9093 659.3992 -804752.8426 42048.0414 0.0000 0.0000 164409.8604 -509749.5183 293.7379 -674159.3788 -508873.7378 293.5204 128.3148 127.7504 2560654.6109 6.3974 6.3060
ENERGY: 4700 9233.4236 45287.3040 33733.5663 649.6625 -797703.2280 39831.2908 0.0000 0.0000 166614.3063 -502353.6744 297.6764 -668967.9807 -501434.1451 297.8755 -60.3140 -60.2747 2569877.0325 -3.1642 -3.4782
ENERGY: 7000 9398.1547 45437.8775 33655.4088 627.8896 -797447.7682 39716.9787 0.0000 0.0000 166770.8372 -501840.6218 297.9561 -668611.4589 -500875.3988 298.0183 -24.0871 -20.2141 2573284.8723 -5.9076 -5.8379
ENERGY: 9400 9340.9579 45280.0410 33578.0414 661.1767 -796709.4534 39349.7124 0.0000 0.0000 166642.8301 -501856.6938 297.7274 -668499.5239 -500948.1517 298.3707 79.1393 77.3816 2568761.4039 6.5862 6.5692
ENERGY: 11700 9425.1511 45362.9263 33652.9762 641.1848 -797356.5041 39709.0503 0.0000 0.0000 166644.8433 -501920.3720 297.7310 -668565.2153 -501023.7681 297.9362 -3.7622 -4.7879 2573045.6901 -1.7596 -1.7433
